results/pd39/single_replacement/single_replacement.csv
bus,equilibrium_status,dynamic_margin,max_real,stable,margin_loss
30,ok,0.10658545410744248,-0.10658545410744248,true,-0.008520044771193516
32,ok,0.09803622788487379,-0.09803622788487379,true,2.918145137517647e-5
33,ok,0.09884700664631951,-0.09884700664631951,true,-0.0007815973100705476
34,ok,0.09793169549814587,-0.09793169549814587,true,0.00013371383810309445
35,ok,0.09864801168090992,-0.09864801168090992,true,-0.0005826023446609541
36,ok,0.09797977971267664,-0.09797977971267664,true,8.562962357232251e-5
37,ok,0.13790490492384927,-0.13790490492384927,true,-0.039839495587600304
38,ok,0.09857955236655377,-0.09857955236655377,true,-0.0005141430303048089
